demo/texas7k/debug/Texas2k_90.m
%% Converted by AMS 1.0.9
%% Copyright (C) 2023-2025 Jinning Wang

%% AMS comes with ABSOLUTELY NO WARRANTY
%% Convert time: 06/25/2025 01:07:16 PM

function mpc = mpc_case
mpc.version = '2';

%% system MVA base
mpc.baseMVA = 100.0;

%% bus data
%% bus_i type Pd Qd Gs Bs area Vm Va baseKV zone Vmax Vmin
mpc.bus = [
    1001	1	26.948	5.851	0	0	0	0.9616	-8.6708	115	0	1.1	0.9;
    1002	1	19.988	4.34	0	0	0	1.02571	16.8495	115	0	1.1	0.9;
    1003	1	0	0	0	0	0	0.99356	-1.1047	115	0	1.1	0.9;
    1004	2	0	0	0	0	0	0.99578	-9.2402	230	0	1.1	0.9;
    1005	1	0	0	0	0	0	0.9961	2.6024	115	0	1.1	0.9;
    1006	2	0	0	0	0	0	1	3.6253	13.8	0	1.1	0.9;
    1007	2	9.087	1.974	0	-4.06	0	1.03	22.3384	115	0	1.1	0.9;
    1008	1	0	0	0	0	0	0.99389	6.8436	115	0	1.1	0.9;
    1009	2	0	0	0	0	0	1	10.0307	13.8	0	1.1	0.9;
    1010	1	0	0	0	3.31	0	1.03	16.6614	115	0	1.1	0.9;
    1011	2	0	0	0	0	0	1.03023	18.3216	22	0	1.1	0.9;
    1012	1	3.871	0.841	0	9.5	0	0.98276	-7.5777	115	0	1.1	0.9;
    1013	1	35.27	7.658	0	0	0	0.99374	7.3585	115	0	1.1	0.9;
    1014	1	2.879	0.625	0	0	0	0.99423	7.9392	115	0	1.1	0.9;
    1015	1	9.737	2.115	0	0	0	1.03018	18.2199	115	0	1.1	0.9;
    1016	2	3.746	0.814	0	0	0	1	8.323	115	0	1.1	0.9;
    1017	1	23.789	5.165	0	0	0	0.97338	-2.5592	115	0	1.1	0.9;
    1018	1	0.089	0.02	0	0	0	0.98567	-1.0275	115	0	1.1	0.9;
    1019	1	80.111	17.393	0	142.98	0	0.97732	-6.2928	115	0	1.1	0.9;
    1020	1	0	0	0	76.73	0	0.99106	-2.4083	115	0	1.1	0.9;
    1021	2	0	0	0	0	0	1	0.7737	13.8	0	1.1	0.9;
    1022	2	0	0	0	0	0	0.99935	0.0109	115	0	1.1	0.9;
    1023	2	0	0	0	0	0	1.01	8.0364	13.8	0	1.1	0.9;
    1024	1	81.749	17.749	0	0	0	0.99044	0.254	115	0	1.1	0.9;
    1025	1	0	0	0	0	0	0.99276	-0.8887	115	0	1.1	0.9;
    1026	2	0	0	0	0	0	1	8.3173	13.8	0	1.1	0.9;
    1027	2	130.467	28.327	0	75	0	0.99712	-6.238	115	0	1.1	0.9;
    1028	2	3.809	0.827	0	0	0	1	-4.2681	115	0	1.1	0.9;
    1029	2	107.872	23.421	0	18.55	0	1	-4.444	115	0	1.1	0.9;
    1030	2	2.05	0.445	0	0	0	1.00788	12.6024	115	0	1.1	0.9;
    1031	1	11.99	2.604	0	0	0	1.00578	14.583	115	0	1.1	0.9;
    1032	2	0	0	0	0	0	0.97321	5.0408	115	0	1.1	0.9;
    1033	2	0	0	0	50	0	0.97774	1.5803	230	0	1.1	0.9;
    1034	1	0	0	0	0	0	0.9992	5.0781	115	0	1.1	0.9;
    1035	2	0	0	0	0	0	1	8.1956	13.8	0	1.1	0.9;
    1036	2	16.313	3.542	0	0	0	0.98621	8.669	115	0	1.1	0.9;
    1037	2	132.58	28.785	0	0	0	0.9675	-4.6116	115	0	1.1	0.9;
    1038	1	0	0	0	0	0	0.9955	9.9962	115	0	1.1	0.9;
    1039	2	0	0	0	0	0	1	15.1753	22	0	1.1	0.9;
    1040	2	57.523	12.489	0	0	0	1	2.0247	115	0	1.1	0.9;
    1041	1	0	0	0	0	0	1.00173	4.2613	115	0	1.1	0.9;
    1042	2	0	0	0	0	0	1.00173	4.2613	13.8	0	1.1	0.9;
    1043	2	0	0	0	0	0	1	7.3332	13.8	0	1.1	0.9;
    1044	2	13.189	2.863	0	0	0	1	-8.8786	115	0	1.1	0.9;
    1045	1	127.814	27.75	0	0	0	0.96146	-8.078	115	0	1.1	0.9;
    1046	2	14.367	3.119	0	0	0	1	2.6587	115	0	1.1	0.9;
    1047	1	0	0	0	0	0	0.99112	3.971	115	0	1.1	0.9;
    1048	2	0	0	0	0	0	0.99112	3.971	18	0	1.1	0.9;
    1049	2	0	0	0	0	0	0.99112	3.971	18	0	1.1	0.9;
    1050	2	0	0	0	0	0	1	6.3893	18	0	1.1	0.9;
    1051	2	0	0	0	0	0	1	7.0924	18	0	1.1	0.9;
    1052	2	0	0	0	0	0	1	5.9725	18	0	1.1	0.9;
    1053	2	0	0	0	0	0	0.98426	-0.3439	230	0	1.1	0.9;
    1054	1	16.46	3.573	0	0	0	1.00189	-1.7115	115	0	1.1	0.9;
    1055	2	5.158	1.12	0	0	0	1	-0.1761	115	0	1.1	0.9;
    1056	1	0	0	0	80	0	1.01565	-2.4919	115	0	1.1	0.9;
    1057	2	0	0	0	0	0	1.01565	-2.4919	18	0	1.1	0.9;
    1058	1	12.15	2.638	0	0	0	1.00152	4.818	115	0	1.1	0.9;
    1059	2	0	0	0	0	0	1.00152	4.818	22	0	1.1	0.9;
    1060	2	0	0	0	0	0	1.00152	4.818	22	0	1.1	0.9;
    1061	2	0	0	0	0	0	1	1.444	115	0	1.1	0.9;
    1062	2	0	0	0	0	0	1.01	3.6604	13.8	0	1.1	0.9;
    1063	2	0	0	0	0	0	1.01	4.3548	13.8	0	1.1	0.9;
    1064	1	151.942	32.989	0	0	0	0.95403	-9.6623	115	0	1.1	0.9;
    1065	1	0	0	0	0	0	1.00369	4.3726	115	0	1.1	0.9;
    1066	2	0	0	0	0	0	1	11.5097	13.8	0	1.1	0.9;
    1067	1	131.69	28.592	0	0	0	0.99905	3.7593	115	0	1.1	0.9;
    1068	1	76.138	16.53	0	0	0	0.97428	5.2026	115	0	1.1	0.9;
    1069	1	0	0	0	0	0	1.00239	7.4519	115	0	1.1	0.9;
    1070	2	0	0	0	0	0	1.02607	11.8455	13.8	0	1.1	0.9;
    1071	1	118.61	25.752	0	0	0	0.96921	-7.6811	115	0	1.1	0.9;
    1072	2	0	0	0	0	0	1.01	-3.2654	18	0	1.1	0.9;
    1073	2	0	0	0	0	0	1.01	-0.1613	18	0	1.1	0.9;
    1074	2	0	0	0	0	0	1.01	-1.1498	18	0	1.1	0.9;
    1075	2	0	0	0	0	0	1.01	-2.4579	18	0	1.1	0.9;
    1076	2	0	0	0	0	0	0.96921	-7.6811	18	0	1.1	0.9;
    1077	2	0	0	0	0	0	0.96921	-7.6811	18	0	1.1	0.9;
    1078	2	0	0	0	0	0	1.01	-2.692	18	0	1.1	0.9;
    1079	2	0	0	0	0	0	0.98299	-28.5024	500	0	1.1	0.9;
    1080	2	0	0	0	0	0	1.01	-2.4639	18	0	1.1	0.9;
    1081	2	0	0	0	140	0	0.97817	-3.3092	230	0	1.1	0.9;
    1082	2	0	0	0	0	0	1	10.2329	115	0	1.1	0.9;
    1083	2	51.8	11.247	0	0	0	1	12.9977	115	0	1.1	0.9;
    1084	2	0	0	0	0	0	0.99695	-2.9435	115	0	1.1	0.9;
    1085	2	23.828	5.173	0	0	0	1	6.9359	115	0	1.1	0.9;
    1086	2	51.446	11.169	0	30	0	1.01317	6.3556	115	0	1.1	0.9;
    1087	1	1.179	0.256	0	50	0	1.00781	-0.217	115	0	1.1	0.9;
    1088	2	0	0	0	0	0	0.99935	9.2912	115	0	1.1	0.9;
    1089	2	51.579	11.198	0	0	0	1	2.6866	115	0	1.1	0.9;
    1090	2	0	0	0	0	0	1.00427	2.4049	115	0	1.1	0.9;
    1091	1	8.959	1.946	0	0	0	0.97749	-4.0184	161	0	1.1	0.9;
    2001	1	44.156	9.586	0	0	1	1.00054	-59.3487	161	0	1.1	0.9;
    2002	1	0	0	0	0	1	1.01167	-60.1225	500	0	1.1	0.9;
    2003	1	0	0	0	0	1	1.01017	-62.4341	161	0	1.1	0.9;
    2004	2	0	0	0	0	1	1.01167	-60.1225	13.8	0	1.1	0.9;
    2005	2	0	0	0	0	1	1.01167	-60.1225	13.8	0	1.1	0.9;
    2006	2	0	0	0	0	1	1.01167	-60.1225	13.8	0	1.1	0.9;
    2007	1	12.372	2.686	0	0	1	1.00256	-58.6673	161	0	1.1	0.9;
    2008	2	10.454	2.27	0	0	1	1.00288	3.9655	161	0	1.1	0.9;
    2009	1	50.75	11.018	0	120	1	0.99236	-27.8646	161	0	1.1	0.9;
    2010	2	50.54	10.973	0	7.48	1	1	-5.8038	161	0	1.1	0.9;
    2011	2	0	0	0	0	1	1.01527	-9.9522	500	0	1.1	0.9;
    2012	2	0	0	0	0	1	0.99469	-3.4269	161	0	1.1	0.9;
    2013	2	0	0	0	0	1	1.00449	-7.4905	18	0	1.1	0.9;
    2014	1	28.275	6.139	0	0	1	0.9964	3.9421	161	0	1.1	0.9;
    2015	1	6.077	1.32	0	0	1	0.99292	-54.6332	161	0	1.1	0.9;
    2016	2	89.825	19.503	0	0	1	1.00682	-69.7778	161	0	1.1	0.9;
    2017	1	0	0	0	-16.16	1	1.03	-14.5847	500	0	1.1	0.9;
    2018	1	0	0	0	0	1	1.00584	-10.9049	161	0	1.1	0.9;
    2019	2	0	0	0	0	1	1.03	-14.5847	20	0	1.1	0.9;
    2020	1	62.211	13.507	0	0	1	0.97336	-33.6585	161	0	1.1	0.9;
    2021	1	0	0	0	0	1	1.0147	-55.4294	500	0	1.1	0.9;
    2022	1	14.997	3.256	0	0	1	1.01022	-57.6824	161	0	1.1	0.9;
    2023	2	0	0	0	0	1	1.02	-53.9458	13.8	0	1.1	0.9;
    2024	2	0	0	0	0	1	1.02	-53.3144	13.8	0	1.1	0.9;
    2025	1	51.376	11.154	0	0	1	0.97065	-33.6469	161	0	1.1	0.9;
    2026	1	10.294	2.235	0	0	1	0.99591	-8.7388	161	0	1.1	0.9;
    2027	1	4.61	1.001	0	0	1	1.00088	-59.8018	161	0	1.1	0.9;
    2028	1	18.464	4.009	0	0	1	0.98125	-34.6578	161	0	1.1	0.9;
    2029	2	4.151	0.901	0	0	1	1	5.3942	161	0	1.1	0.9;
    2030	1	56.064	12.172	0	0	1	0.98802	-63.4369	161	0	1.1	0.9;
    2031	1	4.809	1.044	0	0	1	1.00048	-3.7987	161	0	1.1	0.9;
    2032	1	4.349	0.944	0	0	1	1.00474	-57.9727	161	0	1.1	0.9;
    2033	1	15.911	3.455	0	0	1	0.99186	-64.8736	161	0	1.1	0.9;
    2034	1	6.925	1.503	0	0	1	1.00384	-69.0952	161	0	1.1	0.9;
    2035	2	0.693	0.15	0	0	1	1	2.1037	161	0	1.1	0.9;
    2036	1	53.929	11.709	0	0	1	0.97694	-31.6669	161	0	1.1	0.9;
    2037	1	3.645	0.791	0	0	1	1.0028	-54.6194	161	0	1.1	0.9;
    2038	1	3.377	0.733	0	0	1	1.00918	-62.4966	161	0	1.1	0.9;
    2039	1	7.208	1.565	0	0	1	0.98209	-52.3103	161	0	1.1	0.9;
    2040	1	20.622	4.478	0	0	1	1.0069	-58.4016	161	0	1.1	0.9;
    2041	2	0	0	0	0	1	1	0.82	161	0	1.1	0.9;
    2042	2	0	0	0	0	1	1.01	3.6148	18	0	1.1	0.9;
    2043	1	5.493	1.192	0	0	1	1.00489	-69.4145	161	0	1.1	0.9;
    2044	1	35.539	7.716	0	0	1	0.9987	-59.6189	161	0	1.1	0.9;
    2045	1	29.314	6.365	0	0	1	0.97444	-33.9394	161	0	1.1	0.9;
    2046	1	28.703	6.232	0	0	1	1.00318	-68.6767	161	0	1.1	0.9;
    2047	1	7.193	1.562	0	0	1	1.00804	-63.5588	161	0	1.1	0.9;
    2048	2	8.321	1.807	0	0	1	1	-2.0371	161	0	1.1	0.9;
    2049	2	13.624	2.958	0	0	1	1	-19.574	161	0	1.1	0.9;
    2050	1	4.742	1.029	0	0	1	0.9927	-62.8267	161	0	1.1	0.9;
    2051	2	23.147	5.025	0	0	1	1	-42.9674	161	0	1.1	0.9;
    2052	1	19.942	4.33	0	0	1	0.99228	-0.3706	161	0	1.1	0.9;
    2053	1	37.78	8.202	0	0	1	0.98439	-53.3471	161	0	1.1	0.9;
    2054	1	0	0	0	0	1	0.97477	-33.3829	500	0	1.1	0.9;
    2055	1	64.347	13.971	0	0	1	0.97337	-33.0107	161	0	1.1	0.9;
    2056	2	0	0	0	0	1	0.97477	-33.3829	18	0	1.1	0.9;
    2057	2	0	0	0	0	1	0.99	-30.2956	18	0	1.1	0.9;
    2058	1	0	0	0	0	1	0.99988	-0.3489	161	0	1.1	0.9;
    2059	2	0	0	0	0	1	1	2.9407	13.8	0	1.1	0.9;
    2060	1	4.921	1.068	0	0	1	0.99678	-61.3315	161	0	1.1	0.9;
    2061	1	0	0	0	0	1	0.99967	-14.1202	161	0	1.1	0.9;
    2062	2	0	0	0	0	1	1.01214	-11.9112	18	0	1.1	0.9;
    2063	1	85.09	18.474	0	40	1	1.00431	-67.9296	161	0	1.1	0.9;
    2064	1	3.902	0.848	0	0	1	1.00274	-59.5066	161	0	1.1	0.9;
    2065	2	101.617	22.062	0	3.03	1	1	-56.8244	161	0	1.1	0.9;
    2066	1	0.677	0.147	0	0	1	0.9853	-4.9159	161	0	1.1	0.9;
    2067	1	69.984	15.195	0	0	1	0.97022	-34.1092	161	0	1.1	0.9;
    2068	1	7.47	1.622	0	0	1	0.98563	-33.6233	161	0	1.1	0.9;
    2069	1	28.431	6.173	0	120	1	1.02317	-68.6948	161	0	1.1	0.9;
    2070	1	0	0	0	0	1	0.98945	-33.7274	161	0	1.1	0.9;
    2071	2	0	0	0	0	1	1	-30.2178	18	0	1.1	0.9;
    2072	1	12.585	2.733	0	0	1	1.01518	-66.3173	161	0	1.1	0.9;
    2073	1	0	0	0	0	1	0.98282	-10.2205	161	0	1.1	0.9;
    2074	1	0	0	0	0	1	0.99081	-8.0177	115	0	1.1	0.9;
    2075	1	0	0	0	0	1	0.99081	-8.0177	115	0	1.1	0.9;
    2076	2	0	0	0	0	1	0.98822	-9.3046	24	0	1.1	0.9;
    2077	1	0	0	0	0	1	1.01044	-51.6136	161	0	1.1	0.9;
    2078	2	0	0	0	0	1	1.02	-48.4555	13.8	0	1.1	0.9;
    2079	1	5.808	1.261	0	0	1	1.00084	-4.4574	161	0	1.1	0.9;
    2080	1	21.957	4.767	0	0	1	0.9967	-45.8044	161	0	1.1	0.9;
    2081	2	5.789	1.257	0	0	1	1.00732	-62.5361	161	0	1.1	0.9;
    2082	1	76.551	16.62	0	0	1	0.9807	-30.5946	161	0	1.1	0.9;
    2083	2	0	0	0	0	1	0.99573	-29.028	20	0	1.1	0.9;
    2084	2	0	0	0	0	1	0.9807	-30.5946	20	0	1.1	0.9;
    2085	2	0	0	0	0	1	0.9807	-30.5946	20	0	1.1	0.9;
    2086	1	2.844	0.617	0	0	1	0.98644	-49.8123	161	0	1.1	0.9;
    2087	2	10.239	2.223	0	0	1	1	-4.9094	161	0	1.1	0.9;
    2088	1	0	0	0	0	1	0.98784	-33.5236	161	0	1.1	0.9;
    2089	2	0	0	0	0	1	1	-30.084	24	0	1.1	0.9;
    2090	1	3.143	0.683	0	0	1	1.00121	-60.4176	161	0	1.1	0.9;
    2091	2	22.105	4.8	0	0	1	1	-0.6852	161	0	1.1	0.9;
    2092	1	31.263	6.788	0	0	1	1.00426	-65.8453	161	0	1.1	0.9;
    2093	2	0	0	0	0	1	1	-6.7589	161	0	1.1	0.9;
    2094	2	0	0	0	0	1	1	-6.1386	13.8	0	1.1	0.9;
    2095	2	0	0	0	0	1	1	-6.4526	13.8	0	1.1	0.9;
    2096	1	0	0	0	0	1	1.00769	-15.4714	500	0	1.1	0.9;
    2097	1	0	0	0	0	1	1.00086	-13.8977	230	0	1.1	0.9;
    2098	1	0	0	0	0	1	0.97477	-5.4161	161	0	1.1	0.9;
    2099	2	0	0	0	0	1	1.00844	-15.3325	18	0	1.1	0.9;
    2100	2	0	0	0	0	1	1.02	-12.9679	18	0	1.1	0.9;
    2101	1	0	0	0	0	1	1.01096	-61.1662	500	0	1.1	0.9;
    2102	1	0	0	0	0	1	1.00824	-62.3338	161	0	1.1	0.9;
    2103	2	0	0	0	0	1	1.01096	-61.1662	20	0	1.1	0.9;
    2104	2	0	0	0	0	1	1.01096	-61.1662	20	0	1.1	0.9;
    2105	2	0	0	0	0	1	1.01096	-61.1662	20	0	1.1	0.9;
    2106	1	18.678	4.055	0	0	1	0.99046	-65.5553	161	0	1.1	0.9;
    2107	1	96.158	20.877	0	0	1	1.00275	-63.3091	161	0	1.1	0.9;
    2108	1	2.781	0.604	0	0	1	0.99764	-19.8185	161	0	1.1	0.9;
    2109	2	43.845	9.519	0	0	1	1	-30.278	161	0	1.1	0.9;
...
];

%% generator data
%% bus Pg Qg Qmax Qmin Vg mBase status Pmax Pmin
%% Pc1 Pc2 Qc1min Qc1max Qc2min Qc2max ramp_agc ramp_10 ramp_30 ramp_q apf
mpc.gen = [
    7389	2995.34	15.095	276.29	-60.25	1.02	651.36	1	542.8	162.84	0	0	0	0	0	0	5.994e+06	99900	99900	5.994e+06	0;
    1004	104.915	44.94	44.94	-30.38	1.01	253.2	1	211	63.3	0	0	0	0	0	0	5.994e+06	99900	99900	5.994e+06	0;
    1006	17.0583	4.515	7.31	-4.94	1	41.16	1	34.3	10.29	0	0	0	0	0	0	5.994e+06	99900	99900	5.994e+06	0;
    1007	143.594	0	0	0	1	601.65	1	481.32	0	0	0	0	0	0	0	5.994e+06	99900	99900	5.994e+06	0;
    1009	41.0179	5.259	17.57	-11.88	1	99	1	82.5	24.75	0	0	0	0	0	0	5.994e+06	99900	99900	5.994e+06	0;
    1011	6.6297	0	0	0	1	12	1	10	3	0	0	0	0	0	0	5.994e+06	99900	99900	5.994e+06	0;
    1016	291.354	-45.225	381.179	-381.179	1	1220.75	1	976.6	0	0	0	0	0	0	0	5.994e+06	99900	99900	5.994e+06	0;
    1016	89.5006	-13.892	117.094	-117.094	1	375	1	300	0	0	0	0	0	0	0	5.994e+06	99900	99900	5.994e+06	0;
    1021	99.1998	20.873	42.49	-28.73	1	239.4	1	199.5	59.85	0	0	0	0	0	0	5.994e+06	99900	99900	5.994e+06	0;
    1022	79.4171	0	0	0	1	332.75	1	266.2	0	0	0	0	0	0	0	5.994e+06	99900	99900	5.994e+06	0;
    1023	89.5006	24.19	38.34	-25.92	1.01	216	1	180	54	0	0	0	0	0	0	5.994e+06	99900	99900	5.994e+06	0;
    1023	79.4171	0	0	0	1.01	332.75	1	266.2	0	0	0	0	0	0	0	5.994e+06	99900	99900	5.994e+06	0;
    1026	61.7554	9.042	26.45	-17.88	1	149.04	1	124.2	37.26	0	0	0	0	0	0	5.994e+06	99900	99900	5.994e+06	0;
    1027	1.0738	1.405	1.405	-1.405	1	4.5	1	3.6	0	0	0	0	0	0	0	5.994e+06	99900	99900	5.994e+06	0;
    1028	168.231	16.187	220.097	-220.097	1	704.875	1	563.9	0	0	0	0	0	0	0	5.994e+06	99900	99900	5.994e+06	0;
    1029	41.8565	18.548	54.761	-54.761	1	175.375	1	140.3	0	0	0	0	0	0	0	5.994e+06	99900	99900	5.994e+06	0;
    1030	14.917	0	0	0	1	62.5	1	50	0	0	0	0	0	0	0	5.994e+06	99900	99900	5.994e+06	0;
    1032	138.652	0	0	0	1	580.938	1	464.75	0	0	0	0	0	0	0	5.994e+06	99900	99900	5.994e+06	0;
    1033	138.228	59.21	59.21	-40.03	1	333.6	1	278	83.4	0	0	0	0	0	0	5.994e+06	99900	99900	5.994e+06	0;
    1033	138.652	0	0	0	1	580.938	1	464.75	0	0	0	0	0	0	0	5.994e+06	99900	99900	5.994e+06	0;
    1035	44.7503	-0.618	19.17	-12.96	1	108	1	90	27	0	0	0	0	0	0	5.994e+06	99900	99900	5.994e+06	0;
    1036	78.1641	0	0	0	1	327.5	1	262	0	0	0	0	0	0	0	5.994e+06	99900	99900	5.994e+06	0;
    1037	53.7005	0	0	0	1	225	1	180	0	0	0	0	0	0	0	5.994e+06	99900	99900	5.994e+06	0;
    1039	73.3439	7.523	31.42	-21.24	1	177	1	147.5	44.25	0	0	0	0	0	0	5.994e+06	99900	99900	5.994e+06	0;
    1040	47.9423	-6.302	62.723	-62.723	1	200.875	1	160.7	0	0	0	0	0	0	0	5.994e+06	99900	99900	5.994e+06	0;
    1040	323.366	0	0	0	1	1354.88	1	1083.9	0	0	0	0	0	0	0	5.994e+06	99900	99900	5.994e+06	0;
    1042	0	0	25.96	-17.55	1	146.28	0	121.9	36.57	0	0	0	0	0	0	5.994e+06	99900	99900	5.994e+06	0;
    1043	29.2369	-1.201	12.52	-8.47	1	70.56	1	58.8	17.64	0	0	0	0	0	0	5.994e+06	99900	99900	5.994e+06	0;
    1044	90.2167	26.32	118.03	-118.03	1	378	1	302.4	0	0	0	0	0	0	0	5.994e+06	99900	99900	5.994e+06	0;
    1046	454.812	-30.715	595.031	-595.031	1	1905.62	1	1524.5	0	0	0	0	0	0	0	5.994e+06	99900	99900	5.994e+06	0;
    1048	0	0	165.53	-36.1	1	390.24	0	325.2	97.56	0	0	0	0	0	0	5.994e+06	99900	99900	5.994e+06	0;
    1049	0	0	165.53	-36.1	1	390.24	0	325.2	97.56	0	0	0	0	0	0	5.994e+06	99900	99900	5.994e+06	0;
    1050	59.269	16.984	45.5	-9.92	1	107.28	1	89.4	26.82	0	0	0	0	0	0	5.994e+06	99900	99900	5.994e+06	0;
    1051	59.269	12.446	45.5	-9.92	1	107.28	1	89.4	26.82	0	0	0	0	0	0	5.994e+06	99900	99900	5.994e+06	0;
    1052	59.269	19.204	45.5	-9.92	1	107.28	1	89.4	26.82	0	0	0	0	0	0	5.994e+06	99900	99900	5.994e+06	0;
    1053	0	0	91.01	-19.85	1	214.56	0	178.8	53.64	0	0	0	0	0	0	5.994e+06	99900	99900	5.994e+06	0;
    1055	73.808	27.844	96.563	-96.563	1	309.25	1	247.4	0	0	0	0	0	0	0	5.994e+06	99900	99900	5.994e+06	0;
    1057	0	0	25.56	-17.28	1	144	0	120	36	0	0	0	0	0	0	5.994e+06	99900	99900	5.994e+06	0;
    1059	0	0	2.85	-0.62	1.04	6.72	0	5.6	1.68	0	0	0	0	0	0	5.994e+06	99900	99900	5.994e+06	0;
    1060	0	0	1.02	-0.22	1.04	2.4	0	2	0.6	0	0	0	0	0	0	5.994e+06	99900	99900	5.994e+06	0;
    1061	34.8061	-0.504	45.536	-45.536	1	145.833	1	116.667	0	0	0	0	0	0	0	5.994e+06	99900	99900	5.994e+06	0;
    1062	0	0	0	0	1.01	1.8	0	1.5	0.45	0	0	0	0	0	0	5.994e+06	99900	99900	5.994e+06	0;
    1062	34.8061	11.111	45.536	-45.536	1.01	145.833	1	116.667	0	0	0	0	0	0	0	5.994e+06	99900	99900	5.994e+06	0;
    1063	0	0	0	0	1.01	276	0	230	69	0	0	0	0	0	0	5.994e+06	99900	99900	5.994e+06	0;
    1063	34.8061	8.247	45.536	-45.536	1.01	145.833	1	116.667	0	0	0	0	0	0	0	5.994e+06	99900	99900	5.994e+06	0;
    1066	70.8582	-0.854	30.35	-20.52	1	171	1	142.5	42.75	0	0	0	0	0	0	5.994e+06	99900	99900	5.994e+06	0;
    1070	79.8077	34.19	34.19	-23.11	1.04	192.6	1	160.5	48.15	0	0	0	0	0	0	5.994e+06	99900	99900	5.994e+06	0;
    1072	127.376	91.89	97.8	-21.33	1.01	230.56	1	192.13	57.64	0	0	0	0	0	0	5.994e+06	99900	99900	5.994e+06	0;
    1073	127.376	63.244	97.8	-21.33	1.01	230.56	1	192.13	57.64	0	0	0	0	0	0	5.994e+06	99900	99900	5.994e+06	0;
    1074	127.376	67.962	97.8	-21.33	1.01	230.56	1	192.13	57.64	0	0	0	0	0	0	5.994e+06	99900	99900	5.994e+06	0;
    1075	127.376	84.009	97.8	-21.33	1.01	230.56	1	192.13	57.64	0	0	0	0	0	0	5.994e+06	99900	99900	5.994e+06	0;
    1076	0	0	97.8	-21.33	1.01	230.56	0	192.13	57.64	0	0	0	0	0	0	5.994e+06	99900	99900	5.994e+06	0;
    1077	0	0	97.8	-21.33	1.01	230.56	0	192.13	57.64	0	0	0	0	0	0	5.994e+06	99900	99900	5.994e+06	0;
    1078	63.3136	44.526	48.61	-10.6	1.01	114.6	1	95.5	28.65	0	0	0	0	0	0	5.994e+06	99900	99900	5.994e+06	0;
    1079	63.3136	48.61	48.61	-10.6	1.01	114.6	1	95.5	28.65	0	0	0	0	0	0	5.994e+06	99900	99900	5.994e+06	0;
    1080	63.3136	39.387	48.61	-10.6	1.01	114.6	1	95.5	28.65	0	0	0	0	0	0	5.994e+06	99900	99900	5.994e+06	0;
    1081	0	0	145.83	-31.8	1.01	343.8	0	286.5	85.95	0	0	0	0	0	0	5.994e+06	99900	99900	5.994e+06	0;
    1082	74.5836	-19.143	31.95	-21.6	1	180	1	150	45	0	0	0	0	0	0	5.994e+06	99900	99900	5.994e+06	0;
    1083	57.1907	-61.695	74.823	-74.823	1	239.625	1	191.7	0	0	0	0	0	0	0	5.994e+06	99900	99900	5.994e+06	0;
    1083	476.039	0	0	0	1	1994.56	1	1595.65	0	0	0	0	0	0	0	5.994e+06	99900	99900	5.994e+06	0;
    1084	57.4259	24.6	24.6	-16.63	1.04	138.6	1	115.5	34.65	0	0	0	0	0	0	5.994e+06	99900	99900	5.994e+06	0;
    1085	45.5259	-12.215	59.562	-59.562	1	190.75	1	152.6	0	0	0	0	0	0	0	5.994e+06	99900	99900	5.994e+06	0;
    1085	75.4761	0	0	0	1	316.237	1	252.99	0	0	0	0	0	0	0	5.994e+06	99900	99900	5.994e+06	0;
    1086	29.8333	0	0	0	1	125	1	100	0	0	0	0	0	0	0	5.994e+06	99900	99900	5.994e+06	0;
    1088	37.2918	15.97	15.97	-10.8	1	90	1	75	22.5	0	0	0	0	0	0	5.994e+06	99900	99900	5.994e+06	0;
    1089	63.0084	-30.729	82.434	-82.434	1	264	1	211.2	0	0	0	0	0	0	0	5.994e+06	99900	99900	5.994e+06	0;
    1089	45.2277	0	0	0	1	189.5	1	151.6	0	0	0	0	0	0	0	5.994e+06	99900	99900	5.994e+06	0;
    1090	75.8233	32.48	32.48	-21.96	1.02	183	1	152.5	45.75	0	0	0	0	0	0	5.994e+06	99900	99900	5.994e+06	0;
    1090	17.9004	7.67	7.67	-5.18	1.02	43.2	1	36	10.8	0	0	0	0	0	0	5.994e+06	99900	99900	5.994e+06	0;
    2004	0	0	199.43	-43.49	1.02	470.16	0	391.8	117.54	0	0	0	0	0	0	5.994e+06	99900	99900	5.994e+06	0;
    2005	0	0	199.43	-43.49	1.02	470.16	0	391.8	117.54	0	0	0	0	0	0	5.994e+06	99900	99900	5.994e+06	0;
    2006	0	0	199.43	-43.49	1.02	470.16	0	391.8	117.54	0	0	0	0	0	0	5.994e+06	99900	99900	5.994e+06	0;
    2008	71.6002	0	0	0	1	300	1	240	0	0	0	0	0	0	0	5.994e+06	99900	99900	5.994e+06	0;
    2010	104.506	7.482	136.726	-136.726	1	437.875	1	350.3	0	0	0	0	0	0	0	5.994e+06	99900	99900	5.994e+06	0;
    2011	5.719	-7.481	7.481	-7.481	1	23.958	1	19.167	0	0	0	0	0	0	0	5.994e+06	99900	99900	5.994e+06	0;
    2012	5.719	7.481	7.481	7.481	1	23.958	1	19.167	0	0	0	0	0	0	0	5.994e+06	99900	99900	5.994e+06	0;
    2013	99.7437	-28.89	42.73	-28.89	1	240.72	1	200.6	60.18	0	0	0	0	0	0	5.994e+06	99900	99900	5.994e+06	0;
    2013	5.719	-7.481	7.481	-7.481	1	23.958	1	19.167	0	0	0	0	0	0	0	5.994e+06	99900	99900	5.994e+06	0;
    2016	6.0564	0	0	0	1	25.375	1	20.3	0	0	0	0	0	0	0	5.994e+06	99900	99900	5.994e+06	0;
    2019	0	0	46.43	-31.39	1.04	261.6	0	218	65.4	0	0	0	0	0	0	5.994e+06	99900	99900	5.994e+06	0;
    2023	55.2447	15.626	42.42	-9.25	1.02	100	1	83.33	25	0	0	0	0	0	0	5.994e+06	99900	99900	5.994e+06	0;
    2024	110.496	22.838	84.83	-18.5	1.02	200	1	166.67	50	0	0	0	0	0	0	5.994e+06	99900	99900	5.994e+06	0;
    2029	44.7202	-4.55	58.508	-58.508	1	187.375	1	149.9	0	0	0	0	0	0	0	5.994e+06	99900	99900	5.994e+06	0;
    2029	286.909	-29.189	375.363	-375.363	1	1202.12	1	961.7	0	0	0	0	0	0	0	5.994e+06	99900	99900	5.994e+06	0;
    2029	149.764	0	0	0	1	627.5	1	502	0	0	0	0	0	0	0	5.994e+06	99900	99900	5.994e+06	0;
    2035	239.981	-8.859	313.967	-313.967	1	1005.5	1	804.4	0	0	0	0	0	0	0	5.994e+06	99900	99900	5.994e+06	0;
    2041	62.6654	-44.179	81.985	-81.985	1	262.563	1	210.05	0	0	0	0	0	0	0	5.994e+06	99900	99900	5.994e+06	0;
    2041	84.294	-59.428	110.283	-110.283	1	353.188	1	282.55	0	0	0	0	0	0	0	5.994e+06	99900	99900	5.994e+06	0;
    2041	34.3679	-24.23	44.964	-44.964	1	144	1	115.2	0	0	0	0	0	0	0	5.994e+06	99900	99900	5.994e+06	0;
    2042	39.5794	11.347	16.95	-11.46	1.01	95.52	1	79.6	23.88	0	0	0	0	0	0	5.994e+06	99900	99900	5.994e+06	0;
    2042	62.6654	17.966	81.985	-81.985	1.01	262.563	1	210.05	0	0	0	0	0	0	0	5.994e+06	99900	99900	5.994e+06	0;
    2042	84.294	24.166	110.283	-110.283	1.01	353.188	1	282.55	0	0	0	0	0	0	0	5.994e+06	99900	99900	5.994e+06	0;
    2042	34.3679	9.853	44.964	-44.964	1.01	144	1	115.2	0	0	0	0	0	0	0	5.994e+06	99900	99900	5.994e+06	0;
    2048	73.7786	-4.019	96.524	-96.524	1	309.125	1	247.3	0	0	0	0	0	0	0	5.994e+06	99900	99900	5.994e+06	0;
    2049	325.156	35.281	425.401	-425.401	1	1362.38	1	1089.9	0	0	0	0	0	0	0	5.994e+06	99900	99900	5.994e+06	0;
    2051	60.8902	54	79.663	-79.663	1	255.125	1	204.1	0	0	0	0	0	0	0	5.994e+06	99900	99900	5.994e+06	0;
    2056	0	0	2.8	-0.73	0.99	7.2	0	6	1.8	0	0	0	0	0	0	5.994e+06	99900	99900	5.994e+06	0;
    2057	276.965	117.225	335.52	-87.84	0.99	864	1	720	216	0	0	0	0	0	0	5.994e+06	99900	99900	5.994e+06	0;
    2059	39.7782	-1.272	17.04	-11.52	1	96	1	80	24	0	0	0	0	0	0	5.994e+06	99900	99900	5.994e+06	0;
    2062	67.3246	28.84	28.84	-19.5	1.02	162.48	1	135.4	40.62	0	0	0	0	0	0	5.994e+06	99900	99900	5.994e+06	0;
    2065	93.8861	3.029	122.831	-122.831	1	393.375	1	314.7	0	0	0	0	0	0	0	5.994e+06	99900	99900	5.994e+06	0;
    2065	19.3921	0	0	0	1	81.25	1	65	0	0	0	0	0	0	0	5.994e+06	99900	99900	5.994e+06	0;
    2071	74.5836	19.325	31.95	-21.6	1	180	1	150	45	0	0	0	0	0	0	5.994e+06	99900	99900	5.994e+06	0;
    2076	14.917	6.39	6.39	-4.32	1.04	36	1	30	9	0	0	0	0	0	0	5.994e+06	99900	99900	5.994e+06	0;
    2078	55.9412	13.617	23.96	-16.2	1.02	135	1	112.5	33.75	0	0	0	0	0	0	5.994e+06	99900	99900	5.994e+06	0;
    2081	65.5144	0	0	0	1	274.5	1	219.6	0	0	0	0	0	0	0	5.994e+06	99900	99900	5.994e+06	0;
    2083	13.2594	10.18	10.18	-2.22	1.02	24	1	20	6	0	0	0	0	0	0	5.994e+06	99900	99900	5.994e+06	0;
    2084	0	0	10.18	-2.22	1.02	24	0	20	6	0	0	0	0	0	0	5.994e+06	99900	99900	5.994e+06	0;
    2085	0	0	20.36	-4.44	1.02	48	0	40	12	0	0	0	0	0	0	5.994e+06	99900	99900	5.994e+06	0;
    2087	8.9502	2.066	11.709	-11.709	1	37.5	1	30	0	0	0	0	0	0	0	5.994e+06	99900	99900	5.994e+06	0;
    2087	136.005	0	0	0	1	569.85	1	455.88	0	0	0	0	0	0	0	5.994e+06	99900	99900	5.994e+06	0;
    2089	33.6126	10.243	14.4	-9.73	1	81.12	1	67.6	20.28	0	0	0	0	0	0	5.994e+06	99900	99900	5.994e+06	0;
    2091	98.5103	-25.008	128.881	-128.881	1	412.75	1	330.2	0	0	0	0	0	0	0	5.994e+06	99900	99900	5.994e+06	0;
    2093	7.3297	7.226	9.589	-9.589	1	30.708	1	24.567	0	0	0	0	0	0	0	5.994e+06	99900	99900	5.994e+06	0;
    2094	0	0	2.13	-1.44	1	12	0	10	3	0	0	0	0	0	0	5.994e+06	99900	99900	5.994e+06	0;
    2094	7.3297	-0.116	9.589	-9.589	1	30.708	1	24.567	0	0	0	0	0	0	0	5.994e+06	99900	99900	5.994e+06	0;
    2095	0	0	16.93	-11.45	1	95.4	0	79.5	23.85	0	0	0	0	0	0	5.994e+06	99900	99900	5.994e+06	0;
    2095	7.3297	-0.278	9.589	-9.589	1	30.708	1	24.567	0	0	0	0	0	0	0	5.994e+06	99900	99900	5.994e+06	0;
    2099	4.9721	2.13	2.13	-1.44	1.02	12	1	10	3	0	0	0	0	0	0	5.994e+06	99900	99900	5.994e+06	0;
    2100	74.5836	30.074	31.95	-21.6	1.02	180	1	150	45	0	0	0	0	0	0	5.994e+06	99900	99900	5.994e+06	0;
    2103	0	0	136.28	-29.72	1	321.28	0	267.73	80.32	0	0	0	0	0	0	5.994e+06	99900	99900	5.994e+06	0;
    2104	0	0	136.28	-29.72	1	321.28	0	267.73	80.32	0	0	0	0	0	0	5.994e+06	99900	99900	5.994e+06	0;
    2105	0	0	136.28	-29.72	1	321.28	0	267.73	80.32	0	0	0	0	0	0	5.994e+06	99900	99900	5.994e+06	0;
    2109	62.7102	73.764	82.044	-82.044	1	262.75	1	210.2	0	0	0	0	0	0	0	5.994e+06	99900	99900	5.994e+06	0;
    2113	47.3697	0	0	0	1	198.478	1	158.782	0	0	0	0	0	0	0	5.994e+06	99900	99900	5.994e+06	0;
    2114	47.3697	0	0	0	1	198.478	1	158.782	0	0	0	0	0	0	0	5.994e+06	99900	99900	5.994e+06	0;
    2115	122.464	-20.5	94.02	-20.5	1	221.66	1	184.72	55.41	0	0	0	0	0	0	5.994e+06	99900	99900	5.994e+06	0;
    2115	47.3697	0	0	0	1	198.478	1	158.782	0	0	0	0	0	0	0	5.994e+06	99900	99900	5.994e+06	0;
    2116	122.464	-20.5	94.02	-20.5	1	221.66	1	184.72	55.41	0	0	0	0	0	0	5.994e+06	99900	99900	5.994e+06	0;
    2116	47.3697	0	0	0	1	198.478	1	158.782	0	0	0	0	0	0	0	5.994e+06	99900	99900	5.994e+06	0;
    2117	122.464	-20.5	94.02	-20.5	1	221.66	1	184.72	55.41	0	0	0	0	0	0	5.994e+06	99900	99900	5.994e+06	0;
    2117	47.3697	0	0	0	1	198.478	1	158.782	0	0	0	0	0	0	0	5.994e+06	99900	99900	5.994e+06	0;
    2118	122.464	-18.737	94.02	-20.5	1	221.66	1	184.72	55.41	0	0	0	0	0	0	5.994e+06	99900	99900	5.994e+06	0;
    2118	47.3697	0	0	0	1	198.478	1	158.782	0	0	0	0	0	0	0	5.994e+06	99900	99900	5.994e+06	0;
    2119	122.464	-20.5	94.02	-20.5	1	221.66	1	184.72	55.41	0	0	0	0	0	0	5.994e+06	99900	99900	5.994e+06	0;
    2119	47.3697	0	0	0	1	198.478	1	158.782	0	0	0	0	0	0	0	5.994e+06	99900	99900	5.994e+06	0;
    2120	122.464	-0.101	94.02	-20.5	1.01	221.66	1	184.72	55.41	0	0	0	0	0	0	5.994e+06	99900	99900	5.994e+06	0;
    2120	47.3697	0	0	0	1.01	198.478	1	158.782	0	0	0	0	0	0	0	5.994e+06	99900	99900	5.994e+06	0;
    2123	90.349	-17.655	38.7	-26.16	1	218.04	1	181.7	54.51	0	0	0	0	0	0	5.994e+06	99900	99900	5.994e+06	0;
    2123	146.512	-28.631	191.682	-191.682	1	613.875	1	491.1	0	0	0	0	0	0	0	5.994e+06	99900	99900	5.994e+06	0;
    2127	143.499	61.47	61.47	-41.56	1.04	346.32	1	288.6	86.58	0	0	0	0	0	0	5.994e+06	99900	99900	5.994e+06	0;
    2130	78.3426	-38.015	102.496	-102.496	1	328.25	1	262.6	0	0	0	0	0	0	0	5.994e+06	99900	99900	5.994e+06	0;
    2130	33.852	0	0	0	1	141.833	1	113.467	0	0	0	0	0	0	0	5.994e+06	99900	99900	5.994e+06	0;
    2131	78.3426	3.205	102.496	-102.496	1	328.25	1	262.6	0	0	0	0	0	0	0	5.994e+06	99900	99900	5.994e+06	0;
    2131	33.852	0	0	0	1	141.833	1	113.467	0	0	0	0	0	0	0	5.994e+06	99900	99900	5.994e+06	0;
    2132	78.3426	1.663	102.496	-102.496	1	328.25	1	262.6	0	0	0	0	0	0	0	5.994e+06	99900	99900	5.994e+06	0;
    2132	33.852	0	0	0	1	141.833	1	113.467	0	0	0	0	0	0	0	5.994e+06	99900	99900	5.994e+06	0;
    3004	18.6494	0.242	7.99	-5.4	1	45	1	37.5	11.25	0	0	0	0	0	0	5.994e+06	99900	99900	5.994e+06	0;
    3017	84.2828	36.1	36.1	-24.41	1.01	203.4	1	169.5	50.85	0	0	0	0	0	0	5.994e+06	99900	99900	5.994e+06	0;
    3020	74.5836	31.95	31.95	-21.6	1.03	180	1	150	45	0	0	0	0	0	0	5.994e+06	99900	99900	5.994e+06	0;
    3024	59.5182	77.867	77.867	-77.867	1	249.375	1	199.5	0	0	0	0	0	0	0	5.994e+06	99900	99900	5.994e+06	0;
    3028	99.4448	42.6	42.6	-28.8	1.04	240	1	200	60	0	0	0	0	0	0	5.994e+06	99900	99900	5.994e+06	0;
    3034	64.8844	27.8	27.8	-18.79	1.03	156.6	1	130.5	39.15	0	0	0	0	0	0	5.994e+06	99900	99900	5.994e+06	0;
    3039	103.92	44.52	44.52	-30.1	1.04	250.8	1	209	62.7	0	0	0	0	0	0	5.994e+06	99900	99900	5.994e+06	0;
    3041	22.3993	29.305	29.305	-29.305	1	93.85	1	75.08	0	0	0	0	0	0	0	5.994e+06	99900	99900	5.994e+06	0;
    3042	22.3993	29.305	29.305	-29.305	1	93.85	1	75.08	0	0	0	0	0	0	0	5.994e+06	99900	99900	5.994e+06	0;
    3043	0	0	0.66	-0.14	1.04	1.56	0	1.3	0.39	0	0	0	0	0	0	5.994e+06	99900	99900	5.994e+06	0;
    3043	22.3993	29.305	29.305	-29.305	1.04	93.85	1	75.08	0	0	0	0	0	0	0	5.994e+06	99900	99900	5.994e+06	0;
    3044	0	0	45.5	-9.92	1.04	107.28	0	89.4	26.82	0	0	0	0	0	0	5.994e+06	99900	99900	5.994e+06	0;
    3044	22.3993	29.305	29.305	-29.305	1.04	93.85	1	75.08	0	0	0	0	0	0	0	5.994e+06	99900	99900	5.994e+06	0;
    3045	0	0	227.52	-49.62	1.04	536.4	0	447	134.1	0	0	0	0	0	0	5.994e+06	99900	99900	5.994e+06	0;
    3045	22.3993	29.305	29.305	-29.305	1.04	93.85	1	75.08	0	0	0	0	0	0	0	5.994e+06	99900	99900	5.994e+06	0;
    3048	119.832	51.33	51.33	-34.7	1.04	289.2	1	241	72.3	0	0	0	0	0	0	5.994e+06	99900	99900	5.994e+06	0;
    3049	60.1447	0	0	0	1	252	1	201.6	0	0	0	0	0	0	0	5.994e+06	99900	99900	5.994e+06	0;
    3050	22.2712	29.137	29.137	-29.137	1	93.313	1	74.65	0	0	0	0	0	0	0	5.994e+06	99900	99900	5.994e+06	0;
    3051	22.2712	29.137	29.137	-29.137	1	93.313	1	74.65	0	0	0	0	0	0	0	5.994e+06	99900	99900	5.994e+06	0;
    3055	121.906	52.22	52.22	-35.3	1.04	294.2	1	245.17	73.55	0	0	0	0	0	0	5.994e+06	99900	99900	5.994e+06	0;
    3056	121.906	52.22	52.22	-35.3	1.04	294.2	1	245.17	73.55	0	0	0	0	0	0	5.994e+06	99900	99900	5.994e+06	0;
    3057	121.906	52.22	52.22	-35.3	1.04	294.2	1	245.17	73.55	0	0	0	0	0	0	5.994e+06	99900	99900	5.994e+06	0;
    3060	82.3536	35.28	35.28	-23.85	1.04	198.75	1	165.63	49.69	0	0	0	0	0	0	5.994e+06	99900	99900	5.994e+06	0;
    3061	82.3536	35.28	35.28	-23.85	1.04	198.75	1	165.63	49.69	0	0	0	0	0	0	5.994e+06	99900	99900	5.994e+06	0;
    3062	82.3536	35.28	35.28	-23.85	1.04	198.75	1	165.63	49.69	0	0	0	0	0	0	5.994e+06	99900	99900	5.994e+06	0;
    3063	82.3536	35.28	35.28	-23.85	1.04	198.75	1	165.63	49.69	0	0	0	0	0	0	5.994e+06	99900	99900	5.994e+06	0;
    3065	40.0232	2.174	17.15	-11.59	1	96.6	1	80.5	24.15	0	0	0	0	0	0	5.994e+06	99900	99900	5.994e+06	0;
    3066	101.374	25.103	132.628	-132.628	1	424.75	1	339.8	0	0	0	0	0	0	0	5.994e+06	99900	99900	5.994e+06	0;
    3068	74.5836	31.95	31.95	-21.6	1.04	180	1	150	45	0	0	0	0	0	0	5.994e+06	99900	99900	5.994e+06	0;
    3071	84.6279	-14.216	36.25	-24.51	1	204.24	1	170.2	51.06	0	0	0	0	0	0	5.994e+06	99900	99900	5.994e+06	0;
    3074	49.623	-7.062	21.26	-14.37	1	119.76	1	99.8	29.94	0	0	0	0	0	0	5.994e+06	99900	99900	5.994e+06	0;
    3075	2.2372	0	0	0	1	9.375	1	7.5	0	0	0	0	0	0	0	5.994e+06	99900	99900	5.994e+06	0;
    3076	47.5251	0	0	0	1	199.125	1	159.3	0	0	0	0	0	0	0	5.994e+06	99900	99900	5.994e+06	0;
    3081	123.809	53.04	53.04	-35.86	1.04	298.8	1	249	74.7	0	0	0	0	0	0	5.994e+06	99900	99900	5.994e+06	0;
    3084	115.602	22.592	49.52	-33.48	1	279	1	232.5	69.75	0	0	0	0	0	0	5.994e+06	99900	99900	5.994e+06	0;
    3086	37.2918	15.97	15.97	-10.8	1	90	1	75	22.5	0	0	0	0	0	0	5.994e+06	99900	99900	5.994e+06	0;
    3087	0	0	15.97	-10.8	1	90	0	75	22.5	0	0	0	0	0	0	5.994e+06	99900	99900	5.994e+06	0;
    3092	99.4448	42.6	42.6	-28.8	1.04	240	1	200	60	0	0	0	0	0	0	5.994e+06	99900	99900	5.994e+06	0;
    3095	59.9655	25.69	25.69	-17.37	1.04	144.72	1	120.6	36.18	0	0	0	0	0	0	5.994e+06	99900	99900	5.994e+06	0;
    3098	79.5564	34.08	34.08	-23.04	1.04	192	1	160	48	0	0	0	0	0	0	5.994e+06	99900	99900	5.994e+06	0;
    3105	29.5022	17.07	17.07	-0.74	1	46.72	1	44.5	0	0	0	0	0	0	0	5.994e+06	99900	99900	5.994e+06	0;
    3106	107.931	43.427	62.48	-2.69	1	170.94	1	162.8	0	0	0	0	0	0	0	5.994e+06	99900	99900	5.994e+06	0;
    3110	41.7669	17.89	17.89	-12.1	1.04	100.8	1	84	25.2	0	0	0	0	0	0	5.994e+06	99900	99900	5.994e+06	0;
    3112	37.1924	13.411	15.93	-10.77	1	89.76	1	74.8	22.44	0	0	0	0	0	0	5.994e+06	99900	99900	5.994e+06	0;
    3113	37.1924	14.056	15.93	-10.77	1	89.76	1	74.8	22.44	0	0	0	0	0	0	5.994e+06	99900	99900	5.994e+06	0;
    3114	2.9834	3.903	3.903	-3.903	1	12.5	1	10	0	0	0	0	0	0	0	5.994e+06	99900	99900	5.994e+06	0;
    3115	190.666	3.885	249.449	-249.449	1	798.875	1	639.1	0	0	0	0	0	0	0	5.994e+06	99900	99900	5.994e+06	0;
    3117	31.325	-2.418	13.42	-9.07	1	75.6	1	63	18.9	0	0	0	0	0	0	5.994e+06	99900	99900	5.994e+06	0;
    3118	59.6673	-9.754	25.56	-17.28	1	144	1	120	36	0	0	0	0	0	0	5.994e+06	99900	99900	5.994e+06	0;
    3120	19.6903	0	0	0	1	47.52	1	39.6	11.88	0	0	0	0	0	0	5.994e+06	99900	99900	5.994e+06	0;
    3122	97.9531	2.081	41.96	-28.37	1	236.4	1	197	59.1	0	0	0	0	0	0	5.994e+06	99900	99900	5.994e+06	0;
    3126	29.8333	0	0	0	1	125	1	100	0	0	0	0	0	0	0	5.994e+06	99900	99900	5.994e+06	0;
    3127	67.1251	-19.44	28.76	-19.44	1	162	1	135	40.5	0	0	0	0	0	0	5.994e+06	99900	99900	5.994e+06	0;
...
];

%% branch data
%% fbus tbus r x b rateA rateB rateC ratio angle status angmin angmax PF QF PT QT
mpc.branch = [
    1001	1064	0.00524	0.0358	0.00609	22100	99900	99900	1	0	1	-360	360	0	0	0	0;
    1001	1064	0.00524	0.0358	0.00609	22100	99900	99900	1	0	1	-360	360	0	0	0	0;
    1001	1071	0.00435	0.02808	0.00536	22100	99900	99900	1	0	1	-360	360	0	0	0	0;
    1001	1071	0.00435	0.02808	0.00536	22100	99900	99900	1	0	1	-360	360	0	0	0	0;
    1002	1007	0.07776	0.46693	0.06336	9800	99900	99900	1	0	1	-360	360	0	0	0	0;
    1002	1010	0.05552	0.1357	0.01777	9800	99900	99900	1	0	1	-360	360	0	0	0	0;
    1003	1022	0.00485	0.02012	0.00341	22100	99900	99900	1	0	1	-360	360	0	0	0	0;
    1003	1022	0.00485	0.02012	0.00341	22100	99900	99900	1	0	1	-360	360	0	0	0	0;
    1003	1055	0.01574	0.03782	0.00513	9800	99900	99900	1	0	1	-360	360	0	0	0	0;
    1003	1055	0.01574	0.03782	0.00513	9800	99900	99900	1	0	1	-360	360	0	0	0	0;
    1003	1055	0.01574	0.03782	0.00513	9800	99900	99900	1	0	1	-360	360	0	0	0	0;
    1003	1055	0.01574	0.03782	0.00513	9800	99900	99900	1	0	1	-360	360	0	0	0	0;
    1004	3133	0.0042	0.03	0.055	52300	99900	99900	1	0	1	-360	360	0	0	0	0;
    1004	3133	0.0042	0.03	0.055	52300	99900	99900	1	0	1	-360	360	0	0	0	0;
    1005	1025	0.01842	0.0821	0.01204	14900	99900	99900	1	0	1	-360	360	0	0	0	0;
    1005	1025	0.01842	0.0821	0.01204	14900	99900	99900	1	0	1	-360	360	0	0	0	0;
    1005	1025	0.01842	0.0821	0.01204	14900	99900	99900	1	0	1	-360	360	0	0	0	0;
    1005	1025	0.01842	0.0821	0.01204	14900	99900	99900	1	0	1	-360	360	0	0	0	0;
    1005	1025	0.01842	0.0821	0.01204	14900	99900	99900	1	0	1	-360	360	0	0	0	0;
    1005	1061	0.00599	0.02484	0.00422	22100	99900	99900	1	0	1	-360	360	0	0	0	0;
    1005	1061	0.00599	0.02484	0.00422	22100	99900	99900	1	0	1	-360	360	0	0	0	0;
    1005	1067	0.01711	0.04181	0.00548	9800	99900	99900	1	0	1	-360	360	0	0	0	0;
    1005	1067	0.01711	0.04181	0.00548	9800	99900	99900	1	0	1	-360	360	0	0	0	0;
    1005	1067	0.01711	0.04181	0.00548	9800	99900	99900	1	0	1	-360	360	0	0	0	0;
    1005	1067	0.01711	0.04181	0.00548	9800	99900	99900	1	0	1	-360	360	0	0	0	0;
    1005	1067	0.01711	0.04181	0.00548	9800	99900	99900	1	0	1	-360	360	0	0	0	0;
    1005	1067	0.01711	0.04181	0.00548	9800	99900	99900	1	0	1	-360	360	0	0	0	0;
    1005	1067	0.01711	0.04181	0.00548	9800	99900	99900	1	0	1	-360	360	0	0	0	0;
    1005	1067	0.01711	0.04181	0.00548	9800	99900	99900	1	0	1	-360	360	0	0	0	0;
    1005	1067	0.01711	0.04181	0.00548	9800	99900	99900	1	0	1	-360	360	0	0	0	0;
    1005	1067	0.01711	0.04181	0.00548	9800	99900	99900	1	0	1	-360	360	0	0	0	0;
    1005	1067	0.01711	0.04181	0.00548	9800	99900	99900	1	0	1	-360	360	0	0	0	0;
    1007	1015	0.06224	0.37375	0.05072	9800	99900	99900	1	0	1	-360	360	0	0	0	0;
    1007	1031	0.04803	0.27434	0.04123	9800	99900	99900	1	0	1	-360	360	0	0	0	0;
    1007	1031	0.04803	0.27434	0.04123	9800	99900	99900	1	0	1	-360	360	0	0	0	0;
    1007	1031	0.04803	0.27434	0.04123	9800	99900	99900	1	0	1	-360	360	0	0	0	0;
    1008	1032	0.04501	0.11002	0.01441	9800	99900	99900	1	0	1	-360	360	0	0	0	0;
    1008	1032	0.04501	0.11002	0.01441	9800	99900	99900	1	0	1	-360	360	0	0	0	0;
    1008	1032	0.04501	0.11002	0.01441	9800	99900	99900	1	0	1	-360	360	0	0	0	0;
    1008	1032	0.04501	0.11002	0.01441	9800	99900	99900	1	0	0	-360	360	0	0	0	0;
    1008	1069	0.0083	0.03628	0.00553	14900	99900	99900	1	0	1	-360	360	0	0	0	0;
    1008	1069	0.0083	0.03628	0.00553	14900	99900	99900	1	0	0	-360	360	0	0	0	0;
    1010	1015	0.04703	0.28243	0.03833	9800	99900	99900	1	0	1	-360	360	0	0	0	0;
    1010	1030	0.0616	0.3699	0.0502	9800	99900	99900	1	0	1	-360	360	0	0	0	0;
    1012	1087	0.04934	0.20469	0.03473	14900	99900	99900	1	0	1	-360	360	0	0	0	0;
    1012	1087	0.04934	0.20469	0.03473	14900	99900	99900	1	0	1	-360	360	0	0	0	0;
    1012	1087	0.04934	0.20469	0.03473	14900	99900	99900	1	0	1	-360	360	0	0	0	0;
    1012	3051	0.0571	0.24977	0.03804	14900	99900	99900	1	0	1	-360	360	0	0	0	0;
    1012	3051	0.0571	0.24977	0.03804	14900	99900	99900	1	0	1	-360	360	0	0	0	0;
    1012	3051	0.0571	0.24977	0.03804	14900	99900	99900	1	0	1	-360	360	0	0	0	0;
    1013	1031	0.04509	0.27078	0.03675	9800	99900	99900	1	0	1	-360	360	0	0	0	0;
    1013	1031	0.04509	0.27078	0.03675	9800	99900	99900	1	0	1	-360	360	0	0	0	0;
    1013	1031	0.04509	0.27078	0.03675	9800	99900	99900	1	0	1	-360	360	0	0	0	0;
    1013	1047	0.00947	0.06117	0.01167	22100	99900	99900	1	0	1	-360	360	0	0	0	0;
    1013	1086	0.079	0.19311	0.02529	9800	99900	99900	1	0	1	-360	360	0	0	0	0;
    1014	1047	0.03566	0.14794	0.0251	14900	99900	99900	1	0	1	-360	360	0	0	0	0;
    1014	1047	0.03566	0.14794	0.0251	14900	99900	99900	1	0	1	-360	360	0	0	0	0;
    1014	1083	0.04105	0.18293	0.02682	14900	99900	99900	1	0	1	-360	360	0	0	0	0;
    1014	1083	0.04105	0.18293	0.02682	14900	99900	99900	1	0	1	-360	360	0	0	0	0;
    1016	1034	0.01828	0.10976	0.01489	9800	99900	99900	1	0	1	-360	360	0	0	0	0;
    1016	1034	0.01828	0.10976	0.01489	9800	99900	99900	1	0	1	-360	360	0	0	0	0;
    1016	1034	0.01828	0.10976	0.01489	9800	99900	99900	1	0	1	-360	360	0	0	0	0;
    1016	1034	0.01828	0.10976	0.01489	9800	99900	99900	1	0	1	-360	360	0	0	0	0;
    1016	1034	0.01828	0.10976	0.01489	9800	99900	99900	1	0	1	-360	360	0	0	0	0;
    1016	1034	0.01828	0.10976	0.01489	9800	99900	99900	1	0	1	-360	360	0	0	0	0;
    1016	1034	0.01828	0.10976	0.01489	9800	99900	99900	1	0	1	-360	360	0	0	0	0;
    1016	1034	0.01828	0.10976	0.01489	9800	99900	99900	1	0	1	-360	360	0	0	0	0;
    1016	1034	0.01828	0.10976	0.01489	9800	99900	99900	1	0	1	-360	360	0	0	0	0;
    1016	1034	0.01828	0.10976	0.01489	9800	99900	99900	1	0	1	-360	360	0	0	0	0;
    1016	1068	0.02773	0.15837	0.0238	9800	99900	99900	1	0	1	-360	360	0	0	0	0;
    1017	1018	0.03227	0.07887	0.01033	9800	99900	99900	1	0	1	-360	360	0	0	0	0;
    1017	1018	0.03227	0.07887	0.01033	9800	99900	99900	1	0	1	-360	360	0	0	0	0;
    1017	1018	0.03227	0.07887	0.01033	9800	99900	99900	1	0	1	-360	360	0	0	0	0;
    1017	1029	0.03244	0.14188	0.02161	14900	99900	99900	1	0	1	-360	360	0	0	0	0;
    1017	1037	0.00752	0.03352	0.00491	22100	99900	99900	1	0	1	-360	360	0	0	0	0;
    1017	1037	0.00752	0.03352	0.00491	22100	99900	99900	1	0	1	-360	360	0	0	0	0;
    1017	1037	0.00752	0.03352	0.00491	22100	99900	99900	1	0	1	-360	360	0	0	0	0;
    1017	1037	0.00752	0.03352	0.00491	22100	99900	99900	1	0	1	-360	360	0	0	0	0;
    1017	1047	0.036	0.156	0.024	15000	99900	99900	1	0	1	-360	360	0	0	0	0;
    1017	1047	0.036	0.156	0.024	15000	99900	99900	1	0	1	-360	360	0	0	0	0;
    1017	1047	0.036	0.156	0.024	15000	99900	99900	1	0	1	-360	360	0	0	0	0;
    1017	1047	0.036	0.156	0.024	15000	99900	99900	1	0	1	-360	360	0	0	0	0;
    1017	1047	0.036	0.156	0.024	15000	99900	99900	1	0	1	-360	360	0	0	0	0;
    1018	1024	0.01094	0.06572	0.00892	9800	99900	99900	1	0	1	-360	360	0	0	0	0;
    1018	1024	0.01094	0.06572	0.00892	9800	99900	99900	1	0	1	-360	360	0	0	0	0;
    1018	1024	0.01094	0.06572	0.00892	9800	99900	99900	1	0	1	-360	360	0	0	0	0;
    1019	1040	0.04978	0.20651	0.03504	14900	99900	99900	1	0	1	-360	360	0	0	0	0;
    1019	1040	0.04978	0.20651	0.03504	14900	99900	99900	1	0	1	-360	360	0	0	0	0;
    1019	1040	0.04978	0.20651	0.03504	14900	99900	99900	1	0	1	-360	360	0	0	0	0;
    1019	1040	0.04978	0.20651	0.03504	14900	99900	99900	1	0	1	-360	360	0	0	0	0;
    1019	1040	0.04978	0.20651	0.03504	14900	99900	99900	1	0	1	-360	360	0	0	0	0;
    1019	1040	0.04978	0.20651	0.03504	14900	99900	99900	1	0	1	-360	360	0	0	0	0;
    1019	1040	0.04978	0.20651	0.03504	14900	99900	99900	1	0	1	-360	360	0	0	0	0;
    1019	1045	0.01522	0.0372	0.00487	22100	99900	99900	1	0	1	-360	360	0	0	0	0;
    1019	1045	0.01522	0.0372	0.00487	22100	99900	99900	1	0	1	-360	360	0	0	0	0;
    1019	1071	0.0044	0.028	0.0054	22500	99900	99900	1	0	1	-360	360	0	0	0	0;
    1019	1071	0.0044	0.028	0.0054	22500	99900	99900	1	0	1	-360	360	0	0	0	0;
    1019	1071	0.0044	0.028	0.0054	22500	99900	99900	1	0	1	-360	360	0	0	0	0;
    1019	1084	0.03	0.16	0.025	22000	99900	99900	1	0	1	-360	360	0	0	0	0;
    1019	1084	0.03	0.16	0.025	22000	99900	99900	1	0	0	-360	360	0	0	0	0;
    1020	1025	0.00828	0.03434	0.00583	14900	99900	99900	1	0	1	-360	360	0	0	0	0;
    1020	1025	0.00828	0.03434	0.00583	14900	99900	99900	1	0	1	-360	360	0	0	0	0;
    1020	1025	0.00828	0.03434	0.00583	14900	99900	99900	1	0	1	-360	360	0	0	0	0;
    1020	1025	0.00828	0.03434	0.00583	14900	99900	99900	1	0	1	-360	360	0	0	0	0;
    1020	1025	0.00828	0.03434	0.00583	14900	99900	99900	1	0	1	-360	360	0	0	0	0;
    1020	1025	0.00828	0.03434	0.00583	14900	99900	99900	1	0	1	-360	360	0	0	0	0;
    1020	1084	0.01056	0.06337	0.0086	22100	99900	99900	1	0	1	-360	360	0	0	0	0;
    1020	3059	0.0189	0.06	0.006	30000	99900	99900	1	0	1	-360	360	0	0	0	0;
    1020	3059	0.0189	0.06	0.006	30000	99900	99900	1	0	1	-360	360	0	0	0	0;
    1020	3059	0.0189	0.06	0.006	30000	99900	99900	1	0	1	-360	360	0	0	0	0;
    1020	3059	0.0189	0.06	0.006	30000	99900	99900	1	0	1	-360	360	0	0	0	0;
    1020	3130	0.00996	0.06938	0.01134	22100	99900	99900	1	0	1	-360	360	0	0	0	0;
    1020	3130	0.00996	0.06938	0.01134	22100	99900	99900	1	0	0	-360	360	0	0	0	0;
    1022	1028	0.01433	0.09253	0.01765	22100	99900	99900	1	0	1	-360	360	0	0	0	0;
    1022	1028	0.01433	0.09253	0.01765	22100	99900	99900	1	0	1	-360	360	0	0	0	0;
    1024	1090	0.01414	0.06303	0.00924	14900	99900	99900	1	0	1	-360	360	0	0	0	0;
    1024	1090	0.01414	0.06303	0.00924	14900	99900	99900	1	0	1	-360	360	0	0	0	0;
    1024	1090	0.01414	0.06303	0.00924	14900	99900	99900	1	0	1	-360	360	0	0	0	0;
    1027	1045	0.02505	0.10957	0.01669	22100	99900	99900	1	0	1	-360	360	0	0	0	0;
    1027	1056	0.03121	0.0763	0.00999	25000	99900	99900	1	0	1	-360	360	0	0	0	0;
    1027	1056	0.03121	0.0763	0.00999	25000	99900	99900	1	0	1	-360	360	0	0	0	0;
    1028	3109	0.00428	0.01875	0.00286	25000	99900	99900	1	0	1	-360	360	0	0	0	0;
    1028	3109	0.00428	0.01875	0.00286	25000	99900	99900	1	0	1	-360	360	0	0	0	0;
    1028	3109	0.00428	0.01875	0.00286	25000	99900	99900	1	0	1	-360	360	0	0	0	0;
    1029	1056	0.02054	0.11733	0.01763	22100	99900	99900	1	0	1	-360	360	0	0	0	0;
    1030	1038	0.07404	0.42285	0.06354	9800	99900	99900	1	0	1	-360	360	0	0	0	0;
    1030	1083	0.06537	0.37334	0.0561	9800	99900	99900	1	0	1	-360	360	0	0	0	0;
    1032	1036	0.01956	0.11746	0.01594	9800	99900	99900	1	0	1	-360	360	0	0	0	0;
    1032	1036	0.01956	0.11746	0.01594	9800	99900	99900	1	0	1	-360	360	0	0	0	0;
    1032	1038	0.045	0.11	0.015	15500	99900	99900	1	0	1	-360	360	0	0	0	0;
    1032	1038	0.045	0.11	0.015	15500	99900	99900	1	0	1	-360	360	0	0	0	0;
    1032	1038	0.045	0.11	0.015	15500	99900	99900	1	0	1	-360	360	0	0	0	0;
    1032	1038	0.045	0.11	0.015	15500	99900	99900	1	0	1	-360	360	0	0	0	0;
    1032	1038	0.045	0.11	0.015	15500	99900	99900	1	0	1	-360	360	0	0	0	0;
    1032	1038	0.045	0.11	0.015	15500	99900	99900	1	0	1	-360	360	0	0	0	0;
    1032	1038	0.045	0.11	0.015	15500	99900	99900	1	0	1	-360	360	0	0	0	0;
    1032	1038	0.045	0.11	0.015	15500	99900	99900	1	0	1	-360	360	0	0	0	0;
    1032	1038	0.045	0.11	0.015	15500	99900	99900	1	0	1	-360	360	0	0	0	0;
    1032	1038	0.045	0.11	0.015	15500	99900	99900	1	0	1	-360	360	0	0	0	0;
    1033	1081	0.003	0.031	0.059	54800	99900	99900	1	0	1	-360	360	0	0	0	0;
    1033	1081	0.003	0.031	0.059	54800	99900	99900	1	0	1	-360	360	0	0	0	0;
    1033	1081	0.003	0.031	0.059	54800	99900	99900	1	0	1	-360	360	0	0	0	0;
    1033	1081	0.003	0.031	0.059	54800	99900	99900	1	0	1	-360	360	0	0	0	0;
    1033	3050	0.0139	0.136	0.262	64700	99900	99900	1	0	1	-360	360	0	0	0	0;
    1033	3050	0.0139	0.136	0.262	64700	99900	99900	1	0	1	-360	360	0	0	0	0;
    1034	1067	0.00795	0.04771	0.00647	9800	99900	99900	1	0	1	-360	360	0	0	0	0;
    1034	1067	0.00795	0.04771	0.00647	9800	99900	99900	1	0	1	-360	360	0	0	0	0;
    1034	1067	0.00795	0.04771	0.00647	9800	99900	99900	1	0	1	-360	360	0	0	0	0;
    1034	1067	0.00795	0.04771	0.00647	9800	99900	99900	1	0	1	-360	360	0	0	0	0;
    1034	1067	0.00795	0.04771	0.00647	9800	99900	99900	1	0	1	-360	360	0	0	0	0;
    1034	1067	0.00795	0.04771	0.00647	9800	99900	99900	1	0	1	-360	360	0	0	0	0;
    1034	1067	0.00795	0.04771	0.00647	9800	99900	99900	1	0	1	-360	360	0	0	0	0;
    1034	1067	0.00795	0.04771	0.00647	9800	99900	99900	1	0	1	-360	360	0	0	0	0;
    1034	1067	0.00795	0.04771	0.00647	9800	99900	99900	1	0	1	-360	360	0	0	0	0;
    1034	1067	0.00795	0.04771	0.00647	9800	99900	99900	1	0	1	-360	360	0	0	0	0;
    1034	1067	0.00795	0.04771	0.00647	9800	99900	99900	1	0	1	-360	360	0	0	0	0;
    1034	1067	0.00795	0.04771	0.00647	9800	99900	99900	1	0	1	-360	360	0	0	0	0;
    1036	1088	0.02065	0.11793	0.01772	9800	99900	99900	1	0	1	-360	360	0	0	0	0;
    1037	1071	0.00669	0.04319	0.00824	30000	99900	99900	1	0	1	-360	360	0	0	0	0;
    1037	1071	0.00669	0.04319	0.00824	30000	99900	99900	1	0	1	-360	360	0	0	0	0;
    1037	1071	0.00669	0.04319	0.00824	30000	99900	99900	1	0	1	-360	360	0	0	0	0;
    1038	1082	0.01115	0.04969	0.00729	14900	99900	99900	1	0	1	-360	360	0	0	0	0;
    1038	1082	0.01115	0.04969	0.00729	14900	99900	99900	1	0	0	-360	360	0	0	0	0;
    1038	1083	0.01	0.05	0.007	22100	99900	99900	1	0	1	-360	360	0	0	0	0;
    1038	1083	0.01	0.05	0.007	22100	99900	99900	1	0	1	-360	360	0	0	0	0;
    1038	1083	0.01	0.05	0.007	22100	99900	99900	1	0	1	-360	360	0	0	0	0;
    1038	1083	0.01	0.05	0.007	22100	99900	99900	1	0	1	-360	360	0	0	0	0;
    1038	1083	0.01	0.05	0.007	22100	99900	99900	1	0	1	-360	360	0	0	0	0;
    1038	1083	0.01	0.05	0.007	22100	99900	99900	1	0	1	-360	360	0	0	0	0;
    1040	1090	0.02991	0.13329	0.01955	14900	99900	99900	1	0	1	-360	360	0	0	0	0;
    1040	1090	0.02991	0.13329	0.01955	14900	99900	99900	1	0	0	-360	360	0	0	0	0;
    1041	1065	0.00386	0.02203	0.00331	9800	99900	99900	1	0	1	-360	360	0	0	0	0;
    1041	1067	0.00393	0.01722	0.00262	14900	99900	99900	1	0	1	-360	360	0	0	0	0;
    1044	3019	0.03857	0.17192	0.02521	14900	99900	99900	1	0	1	-360	360	0	0	0	0;
    1044	3019	0.03857	0.17192	0.02521	14900	99900	99900	1	0	1	-360	360	0	0	0	0;
    1044	3130	0.02731	0.19029	0.03111	22100	99900	99900	1	0	1	-360	360	0	0	0	0;
    1045	1064	0.00545	0.03794	0.0062	22100	99900	99900	1	0	1	-360	360	0	0	0	0;
    1046	1087	0.03262	0.14269	0.02173	14900	99900	99900	1	0	1	-360	360	0	0	0	0;
    1046	1087	0.03262	0.14269	0.02173	14900	99900	99900	1	0	0	-360	360	0	0	0	0;
    1046	3009	0.05654	0.23454	0.0398	14900	99900	99900	1	0	1	-360	360	0	0	0	0;
    1046	3009	0.05654	0.23454	0.0398	14900	99900	99900	1	0	1	-360	360	0	0	0	0;
    1046	3009	0.05654	0.23454	0.0398	14900	99900	99900	1	0	1	-360	360	0	0	0	0;
    1046	3009	0.05654	0.23454	0.0398	14900	99900	99900	1	0	1	-360	360	0	0	0	0;
    1046	3009	0.05654	0.23454	0.0398	14900	99900	99900	1	0	1	-360	360	0	0	0	0;
    1046	3009	0.05654	0.23454	0.0398	14900	99900	99900	1	0	1	-360	360	0	0	0	0;
    1046	3009	0.05654	0.23454	0.0398	14900	99900	99900	1	0	1	-360	360	0	0	0	0;
    1046	3009	0.05654	0.23454	0.0398	14900	99900	99900	1	0	1	-360	360	0	0	0	0;
    1047	1085	0.00947	0.06117	0.01167	22100	99900	99900	1	0	1	-360	360	0	0	0	0;
    1053	1081	0.003	0.03	0.06	54800	99900	99900	1	0	1	-360	360	0	0	0	0;
    1054	1056	0.02202	0.09633	0.01467	14900	99900	99900	1	0	1	-360	360	0	0	0	0;
    1054	1089	0.08737	0.21357	0.02796	9800	99900	99900	1	0	1	-360	360	0	0	0	0;
    1055	1089	0.04982	0.12179	0.01595	9800	99900	99900	1	0	1	-360	360	0	0	0	0;
    1055	1089	0.04982	0.12179	0.01595	9800	99900	99900	1	0	1	-360	360	0	0	0	0;
    1056	1061	0.02267	0.12946	0.01945	15000	99900	99900	1	0	1	-360	360	0	0	0	0;
    1056	1061	0.02267	0.12946	0.01945	15000	99900	99900	1	0	1	-360	360	0	0	0	0;
    1056	1065	0.02269	0.12962	0.01948	25000	99900	99900	1	0	1	-360	360	0	0	0	0;
    1058	1069	0.0074	0.05155	0.00843	22100	99900	99900	1	0	1	-360	360	0	0	0	0;
    1058	1069	0.0074	0.05155	0.00843	22100	99900	99900	1	0	1	-360	360	0	0	0	0;
    1058	1087	0.01573	0.10956	0.01791	22100	99900	99900	1	0	1	-360	360	0	0	0	0;
    1058	1087	0.01573	0.10956	0.01791	22100	99900	99900	1	0	1	-360	360	0	0	0	0;
...
];

%% generator cost data
%% 1 startup shutdown n x1 y1 ... xn yn
%% 2 startup shutdown n c(n-1) ... c0
mpc.gencost = [
    2	0	0	3	0	2926.93	0.001;
    2	0	0	3	0	0	0;
    2	0	0	3	0	0	0;
    2	0	0	3	0	0	0.01;
    2	0	0	3	0	0	0;
    2	0	0	3	0	0	0;
    2	0	0	3	0	0	0.01;
    2	0	0	3	0	0	0.01;
    2	0	0	3	0	0	0;
    2	0	0	3	0	0	0.01;
    2	0	0	3	0	0	0;
    2	0	0	3	0	0	0.01;
    2	0	0	3	0	0	0;
    2	0	0	3	0	0	0.01;
    2	0	0	3	0	0	0.01;
    2	0	0	3	0	0	0.01;
    2	0	0	3	0	0	0.01;
    2	0	0	3	0	0	0.01;
    2	0	0	3	0	0	0;
    2	0	0	3	0	0	0.01;
    2	0	0	3	0	0	0;
    2	0	0	3	0	0	0.01;
    2	0	0	3	0	0	0.01;
    2	0	0	3	0	0	0;
    2	0	0	3	0	0	0.01;
    2	0	0	3	0	0	0.01;
    2	0	0	3	0	0	0;
    2	0	0	3	0	0	0;
    2	0	0	3	0	0	0.01;
    2	0	0	3	0	0	0.01;
    2	0	0	3	0	1087.8	0.001;
    2	0	0	3	0	1087.8	0.001;
    2	0	0	3	0	734.1	0.001;
    2	0	0	3	0	734.1	0.001;
    2	0	0	3	0	734.1	0.001;
    2	0	0	3	0	868.2	0.001;
    2	0	0	3	0	0	0.01;
    2	0	0	3	0	0	0;
    2	0	0	3	0	608.4	0.001;
    2	0	0	3	0	603	0.001;
    2	0	0	3	0	0	0.01;
    2	0	0	3	0	0	0;
    2	0	0	3	0	0	0.01;
    2	0	0	3	0	0	0;
    2	0	0	3	0	0	0.01;
    2	0	0	3	0	0	0;
    2	0	0	3	0	0	0;
    2	0	0	3	0	888.2	0.001;
    2	0	0	3	0	888.2	0.001;
    2	0	0	3	0	888.2	0.001;
    2	0	0	3	0	888.2	0.001;
    2	0	0	3	0	888.2	0.001;
    2	0	0	3	0	888.2	0.001;
    2	0	0	3	0	743.25	0.001;
    2	0	0	3	0	743.25	0.001;
    2	0	0	3	0	743.25	0.001;
    2	0	0	3	0	1029.75	0.001;
    2	0	0	3	0	0	0;
    2	0	0	3	0	0	0.01;
    2	0	0	3	0	0	0.01;
    2	0	0	3	0	0	0;
    2	0	0	3	0	0	0.01;
    2	0	0	3	0	0	0.01;
    2	0	0	3	0	0	0.01;
    2	0	0	3	0	0	0;
    2	0	0	3	0	0	0.01;
    2	0	0	3	0	0	0.01;
    2	0	0	3	0	0	0;
    2	0	0	3	0	0	0;
    2	0	0	3	0	1187.7	0.002;
    2	0	0	3	0	1187.7	0.002;
    2	0	0	3	0	1187.7	0.002;
    2	0	0	3	0	0	0.01;
    2	0	0	3	0	0	0.01;
    2	0	0	3	0	0	0.01;
    2	0	0	3	0	0	0.01;
    2	0	0	3	0	0	0;
    2	0	0	3	0	0	0.01;
    2	0	0	3	0	0	0.01;
    2	0	0	3	0	0	0;
    2	0	0	3	0	724.99	0.001;
    2	0	0	3	0	850.01	0.001;
    2	0	0	3	0	0	0.01;
    2	0	0	3	0	0	0.01;
    2	0	0	3	0	0	0.01;
    2	0	0	3	0	0	0.01;
    2	0	0	3	0	0	0.01;
    2	0	0	3	0	0	0.01;
    2	0	0	3	0	0	0.01;
    2	0	0	3	0	0	0;
    2	0	0	3	0	0	0.01;
    2	0	0	3	0	0	0.01;
    2	0	0	3	0	0	0.01;
    2	0	0	3	0	0	0.01;
    2	0	0	3	0	0	0.01;
    2	0	0	3	0	0	0.01;
    2	0	0	3	0	236.16	0.002;
    2	0	0	3	0	1398.51	0.002;
    2	0	0	3	0	0	0;
    2	0	0	3	0	0	0;
    2	0	0	3	0	0	0.01;
    2	0	0	3	0	0	0.01;
    2	0	0	3	0	0	0;
    2	0	0	3	0	0	0;
    2	0	0	3	0	0	0;
    2	0	0	3	0	0	0.01;
    2	0	0	3	0	630	0.001;
    2	0	0	3	0	630	0.001;
    2	0	0	3	0	660	0.001;
    2	0	0	3	0	0	0.01;
    2	0	0	3	0	0	0.01;
    2	0	0	3	0	0	0;
    2	0	0	3	0	0	0.01;
    2	0	0	3	0	0	0.01;
    2	0	0	3	0	0	0;
    2	0	0	3	0	0	0.01;
    2	0	0	3	0	0	0;
    2	0	0	3	0	0	0.01;
    2	0	0	3	0	0	0;
    2	0	0	3	0	0	0;
    2	0	0	3	0	1001.59	0.002;
    2	0	0	3	0	1001.59	0.002;
    2	0	0	3	0	1001.59	0.002;
    2	0	0	3	0	0	0.01;
    2	0	0	3	0	0	0.01;
    2	0	0	3	0	0	0.01;
    2	0	0	3	0	877.08	0.001;
    2	0	0	3	0	0	0.01;
    2	0	0	3	0	877.08	0.001;
    2	0	0	3	0	0	0.01;
    2	0	0	3	0	877.08	0.001;
    2	0	0	3	0	0	0.01;
    2	0	0	3	0	877.08	0.001;
    2	0	0	3	0	0	0.01;
    2	0	0	3	0	877.08	0.001;
    2	0	0	3	0	0	0.01;
    2	0	0	3	0	877.08	0.001;
    2	0	0	3	0	0	0.01;
    2	0	0	3	0	0	0;
    2	0	0	3	0	0	0.01;
    2	0	0	3	0	0	0;
    2	0	0	3	0	0	0.01;
    2	0	0	3	0	0	0.01;
    2	0	0	3	0	0	0.01;
    2	0	0	3	0	0	0.01;
    2	0	0	3	0	0	0.01;
    2	0	0	3	0	0	0.01;
    2	0	0	3	0	0	0;
    2	0	0	3	0	0	0;
    2	0	0	3	0	0	0;
    2	0	0	3	0	0	0.01;
    2	0	0	3	0	0	0;
    2	0	0	3	0	0	0;
    2	0	0	3	0	0	0;
    2	0	0	3	0	0	0.01;
    2	0	0	3	0	0	0.01;
    2	0	0	3	0	601.95	0.002;
    2	0	0	3	0	0	0.01;
    2	0	0	3	0	734.1	0.002;
    2	0	0	3	0	0	0.01;
    2	0	0	3	0	1365.86	0.002;
    2	0	0	3	0	0	0.01;
    2	0	0	3	0	0	0;
    2	0	0	3	0	0	0.01;
    2	0	0	3	0	0	0.01;
    2	0	0	3	0	0	0.01;
    2	0	0	3	0	0	0;
    2	0	0	3	0	0	0;
    2	0	0	3	0	0	0;
    2	0	0	3	0	0	0;
    2	0	0	3	0	0	0;
    2	0	0	3	0	0	0;
    2	0	0	3	0	0	0;
    2	0	0	3	0	0	0;
    2	0	0	3	0	0	0.01;
    2	0	0	3	0	0	0;
    2	0	0	3	0	0	0;
    2	0	0	3	0	0	0;
    2	0	0	3	0	0	0.01;
    2	0	0	3	0	0	0.01;
    2	0	0	3	0	0	0;
    2	0	0	3	0	0	0;
    2	0	0	3	0	0	0;
    2	0	0	3	0	0	0;
    2	0	0	3	0	0	0;
    2	0	0	3	0	0	0;
    2	0	0	3	0	0	0;
    2	0	0	3	0	0	0;
    2	0	0	3	0	0	0;
    2	0	0	3	0	0	0;
    2	0	0	3	0	0	0;
    2	0	0	3	0	0	0;
    2	0	0	3	0	0	0.01;
    2	0	0	3	0	0	0.01;
    2	0	0	3	0	0	0;
    2	0	0	3	0	0	0;
    2	0	0	3	0	0	0;
    2	0	0	3	0	0	0;
    2	0	0	3	0	0	0.01;
    2	0	0	3	0	0	0;
...
];

%% bus names
mpc.bus_name = {
    'ODESSA 2 0';
    'PRESIDIO 2 0';
    'O DONNELL ~1';
    'O DONNELL ~2';
    'BIG SPRING~8';
    'BIG SPRING~9';
    'VAN HORN 0';
    'IRAAN 2 0';
    'IRAAN 2 1';
    'PRESIDIO 1 0';
    'PRESIDIO 1 1';
    'SANDERSON 0';
    'MONAHANS 2 0';
    'GRANDFALLS 0';
    'MARFA 0';
    'GARDEN CIT~1';
    'ODESSA 4 0';
    'NOTREES 0';
    'MIDLAND 4 0';
    'BIG SPRING~1';
    'BIG SPRING~2';
    'O DONNELL ~3';
    'O DONNELL ~4';
    'ODESSA 6 0';
    'BIG SPRIN~14';
    'BIG SPRIN~15';
    'MIDLAND 2 0';
    'COAHOMA 0';
    'MIDLAND 3 0';
    'ALPINE 0';
    'FORT DAVIS 0';
    'MCCAMEY 1 0';
    'MCCAMEY 1 1';
    'BIG SPRING~6';
    'BIG SPRING~7';
    'CRANE 0';
    'ODESSA 5 0';
    'FORT STOCK~1';
    'FORT STOCK~2';
    'ANDREWS 0';
    'FORSAN 0';
    'FORSAN 1';
    'FORSAN 2';
    'BIG LAKE 0';
    'MIDLAND 5 0';
    'OZONA 0';
    'MONAHANS 1 0';
    'MONAHANS 1 1';
    'MONAHANS 1 2';
    'MONAHANS 1 3';
    'MONAHANS 1 4';
    'MONAHANS 1 5';
    'MONAHANS 1 6';
    'STANTON 0';
    'ODONNELL 0';
    'LENORAH 0';
    'LENORAH 1';
    'IRAAN 3 0';
    'IRAAN 3 1';
    'IRAAN 3 2';
    'BIG SPRIN~10';
    'BIG SPRIN~11';
    'BIG SPRIN~12';
    'ODESSA 3 0';
    'BIG SPRING~4';
    'BIG SPRING~5';
    'BIG SPRIN~13';
    'MIDLAND 1 0';
    'IRAAN 1 0';
    'IRAAN 1 1';
    'ODESSA 1 0';
    'ODESSA 1 1';
    'ODESSA 1 2';
    'ODESSA 1 3';
    'ODESSA 1 4';
    'ODESSA 1 5';
    'ODESSA 1 6';
    'ODESSA 1 7';
    'ODESSA 1 8';
    'ODESSA 1 9';
    'ODESSA 1 10';
    'FORT STOCK~3';
    'FORT STOCK~4';
    'BIG SPRING~3';
    'KERMIT 0';
    'PECOS 0';
    'SHEFFIELD 0';
    'MCCAMEY 2 0';
    'LAMESA 0';
    'GOLDSMITH 0';
    'RALLS 2 0';
    'PARIS 3 0';
    'SAVOY 0';
    'SAVOY 1';
    'SAVOY 2';
    'SAVOY 3';
    'SAVOY 4';
    'HONEY GROV~1';
    'MEMPHIS 0';
    'IOWA PARK 0';
    'VERNON 2 0';
    'PANHANDLE ~2';
    'PANHANDLE ~3';
    'PANHANDLE ~4';
    'CHILDRESS 0';
    'FORESTBURG 0';
    'SHERMAN 3 0';
    'PANHANDLE ~7';
    'PANHANDLE ~8';
    'PANHANDLE ~9';
    'WICHITA F~12';
    'PARIS 2 0';
    'PARIS 2 1';
    'PARIS 2 2';
    'PARIS 2 3';
    'WICHITA F~10';
    'WHEELER 0';
    'DEPORT 0';
    'WICHITA FA~9';
    'SILVERTON 0';
    'BONHAM 0';
    'MATADOR 0';
    'ARTHUR CIT~1';
    'LEONARD 0';
    'GORDONVILL~1';
    'KNOX CITY 0';
    'WICHITA F~13';
    'LINDSAY 0';
    'ECTOR 0';
    'SUNSET 0';
    'CLARKSVILL~1';
    'PANHANDLE ~5';
    'PANHANDLE ~6';
    'SADLER 0';
    'WHITESBORO 0';
    'SHEPPARD A~1';
    'POTTSBORO 0';
    'BELLS 0';
    'CROSBYTON 0';
    'ELECTRA 0';
    'PATTONVILL~1';
    'HENRIETTA 0';
    'PANHANDLE~13';
    'BOWIE 0';
    'WICHITA FA~1';
    'WICHITA FA~2';
    'WICHITA FA~3';
    'WICHITA FA~4';
    'WHITE DEER 0';
    'WHITE DEER 1';
    'ROXTON 0';
    'VERNON 1 0';
    'VERNON 1 1';
    'DENISON 2 0';
    'SUMNER 0';
    'GAINESVILL~1';
    'ASPERMONT 0';
    'WICHITA F~11';
    'WINDTHORST 0';
    'HOWE 0';
    'ARCHER 2 0';
    'ARCHER 2 1';
    'COLLINSVIL~1';
    'JAYTON 0';
    'JAYTON 1';
    'JAYTON 2';
    'JAYTON 3';
    'MUENSTER 1 0';
    'MUENSTER 1 1';
    'PADUCAH 0';
    'NOCONA 0';
    'DODD CITY 0';
    'WICHITA FA~5';
    'WICHITA FA~6';
    'WICHITA FA~7';
    'WICHITA FA~8';
    'MONTAGUE 0';
    'SPUR 0';
    'ARCHER 1 0';
    'ARCHER 1 1';
    'ANNONA 0';
    'SEYMOUR 0';
    'DENISON 1 0';
    'PANHANDLE~10';
    'PANHANDLE~11';
    'PANHANDLE~12';
    'RALLS 1 0';
    'RALLS 1 1';
    'RALLS 1 2';
    'RALLS 1 3';
    'RALLS 1 4';
    'SHERMAN 1 0';
    'SHERMAN 1 1';
    'SHERMAN 1 2';
    'SHERMAN 1 3';
    'SHERMAN 1 4';
    'WHITEWRIGH~1';
    'SHERMAN 2 0';
    'ROCHESTER 0';
    'BURKBURNET~1';
    'MUENSTER 2 0';
    'ARCHER CIT~1';
    'PETROLIA 0';
    'PARIS 1 0';
    'PARIS 1 1';
    'PARIS 1 2';
    'PARIS 1 3';
    'PARIS 1 4';
    'PARIS 1 5';
    'PARIS 1 6';
    'PARIS 1 7';
    'BAGWELL 0';
    'TELEPHONE 0';
    'PANHANDLE ~1';
    'VAN ALSTYN~1';
    'TIOGA 0';
    'VALLEY VIE~1';
    'MIAMI 0';
    'MIAMI 1';
    'TRENTON 0';
    'HASKELL 0';
    'HASKELL 1';
    'HASKELL 2';
    'SAINT JO 0';
    'KERRVILLE 0';
    'KERRVILLE 1';
    'SWEETWATER~4';
    'SWEETWATER~5';
    'LEAKEY 0';
    'HAMLIN 0';
    'MERKEL 3 0';
    'COLEMAN 0';
    'SONORA 0';
    'CAMP WOOD 0';
    'LLANO 0';
    'WILLOW CIT~1';
    'ABILENE 4 0';
    'KINGSLAND 0';
    'ROSCOE 6 0';
    'BLACKWELL 0';
    'BLACKWELL 1';
    'CHRISTOVAL 0';
    'CHRISTOVAL 1';
    'CHRISTOVAL 2';
    'LUEDERS 0';
    'COLORADO C~1';
    'STAMFORD 0';
    'ELDORADO 0';
    'SAN SABA 0';
    'ABILENE 2 0';
    'ABILENE 2 1';
    'ABILENE 2 2';
    'LOMETA 0';
    'SAN ANGELO~1';
    'TUSCOLA 0';
    'ABILENE 7 0';
    'SNYDER 1 0';
    'SNYDER 1 1';
    'CHEROKEE 0';
    'RICHLAND S~1';
    'ROSCOE 2 0';
    'ROSCOE 2 1';
    'ROSCOE 2 2';
    'BALLINGER 0';
    'SILVER 0';
    'SILVER 1';
    'SILVER 2';
    'SILVER 3';
    'SILVER 4';
    'ROSCOE 5 0';
    'ROSCOE 5 1';
    'ROSCOE 5 2';
    'ANSON 0';
    'DEL RIO 0';
    'DEL RIO 1';
    'HUNT 0';
    'WINGATE 0';
    'WINGATE 1';
    'WINGATE 2';
    'WINGATE 3';
    'WINGATE 4';
    'STERLING C~1';
    'STERLING C~2';
    'STERLING C~3';
    'STERLING C~4';
    'STERLING C~5';
    'STERLING C~6';
    'ROSCOE 4 0';
    'ROSCOE 4 1';
    'BRADY 0';
    'TRENT 1 0';
    'TRENT 1 1';
    'OVALO 0';
    'NOLAN 0';
    'NOLAN 1';
    'MILES 0';
    'BRACKETTVI~3';
    'BRACKETTVI~4';
    'MASON 0';
    'BRACKETTVI~5';
    'ABILENE 6 0';
    'HERMLEIGH 0';
    'HERMLEIGH 1';
    'HERMLEIGH 2';
    'HERMLEIGH 3';
    'MERKEL 1 0';
    'MERKEL 1 1';
    'MERKEL 1 2';
    'LORAINE 1 0';
    'LORAINE 1 1';
    'LORAINE 1 2';
    'ABILENE 1 0';
    'ABILENE 1 1';
    'ABILENE 1 2';
    'ABILENE 1 3';
    'ABILENE 1 4';
    'ROCKSPRING~1';
    'MERKEL 2 0';
    'MERKEL 2 1';
    'FLUVANNA 2 0';
    'FLUVANNA 2 1';
    'FLUVANNA 2 2';
    'DYESS AFB 0';
    'HAWLEY 0';
    'BUCHANAN D~4';
    'ABILENE 3 0';
    'SWEETWATER~6';
    'BUCHANAN D~1';
    'BUCHANAN D~2';
    'BUCHANAN D~3';
    'INGRAM 0';
    'KEMPNER 0';
    'FLUVANNA 1 0';
    'FLUVANNA 1 1';
    'STERLING C~7';
    'STERLING C~8';
    'STERLING C~9';
    'SAN ANGELO~2';
    'ROTAN 0';
    'SYNDER 0';
    'SYNDER 1';
    'SYNDER 2';
    'BRACKETTVI~1';
    'BRACKETTVI~2';
    'ROSCOE 1 0';
    'ROSCOE 1 1';
    'UVALDE 0';
    'FREDERICKS~1';
    'ABILENE 5 0';
    'SABINAL 0';
    'SWEETWATER~2';
    'LORAINE 2 0';
    'ROSCOE 3 0';
    'SAN ANGELO~3';
    'TUSOCOLA 0';
    'EDEN 0';
    'SNYDER 2 0';
    'SNYDER 2 1';
    'SNYDER 2 2';
    'SNYDER 2 3';
    'SWEETWATER~1';
    'MENARD 0';
    'WINTERS 0';
    'GOLDSBORO 0';
    'SWEETWATER~3';
    'GOODFELLOW~1';
    'SANTA ANNA 0';
    'ROWENA 0';
    'TRENT 2 0';
    'JUNCTION 0';
    'LAMPASAS 0';
    'LAUGHLIN A~1';
    'EDINBURG 3 0';
    'LAREDO 7 0';
    'LAREDO 7 1';
    'BRUNI 2 0';
    'MCALLEN 2 0';
    'POTEET 0';
    'SARITA 3 0';
    'SARITA 3 1';
    'HEBBRONVIL~1';
    'PROGRESO 0';
    'EDINBURG 2 0';
    'EAGLE PASS 0';
    'EAGLE PASS 1';
    'CHARLOTTE 0';
    'CORPUS CH~24';
    'WOODSBORO 0';
    'MERCEDES 0';
    'CORPUS CH~13';
    'EDCOUCH 0';
    'ENCINAL 0';
    'MOORE 0';
    'CHRISTINE 0';
    'CHRISTINE 1';
    'CHRISTINE 2';
    'MCALLEN 3 0';
    'FANNIN 0';
    'FANNIN 1';
    'FANNIN 2';
    'SAN YGNACI~1';
    'KINGSVILLE 0';
    'LAREDO 6 0';
    'HIDALGO 0';
    'CORPUS CH~15';
    'CRYSTAL CI~1';
    'SINTON 0';
    'BEEVILLE 0';
    'MISSION 4 0';
    'MISSION 4 1';
    'SAN JUAN 0';
    'SAN JUAN 1';
    'FALCON HEI~5';
    'FALCON HEI~1';
    'FALCON HEI~2';
    'FALCON HEI~3';
    'FALCON HEI~4';
    'LA JOYA 0';
    'SEBASTIAN ~2';
    'SEBASTIAN ~3';
    'BISHOP 0';
    'BISHOP 1';
    'ARMSTRONG ~4';
    'SKIDMORE 0';
    'CORPUS CH~29';
    'GREGORY 0';
    'GREGORY 1';
    'GREGORY 2';
    'GREGORY 3';
    'GREGORY 4';
    'GREGORY 5';
    'GREGORY 6';
    'GREGORY 7';
    'CORPUS CH~16';
    'CORPUS CH~17';
    'WESLACO 0';
    'HARLINGEN ~1';
    'ELSA 0';
    'CORPUS CH~14';
    'BROWNSVILL~3';
    'BROWNSVILL~4';
    'CORPUS CHR~7';
    'MISSION 1 0';
    'MISSION 1 1';
    'MISSION 1 2';
    'MISSION 1 3';
    'MISSION 1 4';
...